data_image0
_cell_length_a       4.92
_cell_length_b       4.26084
_cell_length_c       6
_cell_angle_alpha    90
_cell_angle_beta     90
_cell_angle_gamma    90

_symmetry_space_group_name_H-M    "P 1"
_symmetry_int_tables_number       1

loop_
  _symmetry_equiv_pos_as_xyz
  'x, y, z'

loop_
  _atom_site_label
  _atom_site_occupancy
  _atom_site_fract_x
  _atom_site_fract_y
  _atom_site_fract_z
  _atom_site_thermal_displace_type
  _atom_site_B_iso_or_equiv
  _atom_site_type_symbol
  C1       1.0000 0.87500  0.16667  0.50000  Biso   1.000  C
  C2       1.0000 0.12500  0.33333  0.50000  Biso   1.000  C
  C3       1.0000 0.12500  0.66667  0.50000  Biso   1.000  C
  C4       1.0000 0.37500  0.83333  0.50000  Biso   1.000  C
  C5       1.0000 0.37500  0.16667  0.50000  Biso   1.000  C
  C6       1.0000 0.62500  0.33333  0.50000  Biso   1.000  C
  C7       1.0000 0.62500  0.66667  0.50000  Biso   1.000  C
  C8       1.0000 0.87500  0.83333  0.50000  Biso   1.000  C
